*HEADING
cubit(C:/Users/Peter/Desktop/Fidesys/FEM/donut1.inp): 12/27/2018: 06:58:53
version: 16.5.3
**
********************************** P A R T S **********************************
*PART, NAME=Part-Default
**
********************************** N O D E S **********************************
*NODE, NSET=ALLNODES
     158,    1.000000e+00,    0.000000e+00
     159,    2.000000e+00,    0.000000e+00
     160,    4.999999e-01,   -8.660254e-01
     161,   -4.999999e-01,   -8.660254e-01
     162,   -1.000000e+00,   -2.188284e-14
     163,   -4.999999e-01,    8.660254e-01
     164,    4.999999e-01,    8.660254e-01
     165,    1.534309e+00,    1.282925e+00
     166,    3.404253e-01,    1.970815e+00
     167,   -1.001149e+00,    1.731387e+00
     168,   -1.878548e+00,    6.863362e-01
     169,   -1.878557e+00,   -6.863117e-01
     170,   -1.001168e+00,   -1.731376e+00
     171,    3.404070e-01,   -1.970818e+00
     172,    1.534310e+00,   -1.282923e+00
     173,    1.879976e+00,   -6.824146e-01
     174,    1.500000e+00,    0.000000e+00
     175,    1.267155e+00,   -6.414616e-01
     176,    1.017154e+00,    1.074475e+00
     177,    8.660254e-01,    5.000000e-01
** ... 2020 like lines cut
**
********************************** E L E M E N T S ****************************
*ELEMENT, TYPE=CPS3, ELSET=EB1
    1276,    1902,     290,    1909
    1277,    1909,     627,    1912
    1278,    1912,     626,    1902
    1279,    1902,    1909,    1912
    1280,    1907,     284,    1899
    1281,    1899,     625,    1913
    1282,    1913,     627,    1907
    1283,    1907,    1899,    1913
    1284,    1911,     626,    1912
    1285,    1912,     627,    1913
    1286,    1913,     625,    1911
    1287,    1911,    1912,    1913
    1288,    1914,     172,    1915
    1289,    1915,     629,    1916
    1290,    1916,     628,    1914
    1291,    1934,    1937,    1940
    1292,    1940,     634,    1934
    1293,    1937,     636,    1940
    1294,    1934,     635,    1937
    1295,    1938,    1939,    1940
** ... 3820 like lines cut
**
********************************** N O D E S E T S **********************************
*NSET, NSET=NS1
     172,
**
********************************** S I D E S E T S **********************************
*ELSET, ELSET=SS1_S1
    1348,    1349,    1352,    1356,    1357,    1671,    1674,    1698,    1707,    1718,
    1719,    1725,    2493,    2496,    2508,    2517,    2568,    2569,    2572,    2576,
    2577,    2794,    2800,    2801,    2812,    2821,    2845,    2848,    3773,    3776,
    3788,    3797,    3848,    3849,    3852,    3856,    3857,    4074,    4080,    4081,
    4092,    4101,    4125,    4128,    5053,    5056,    5068,    5077
*ELSET, ELSET=SS1_S2
    1346,    1354,    1669,    1675,    1699,    1705,    1721,    1726,    1729,    2492,
    2498,    2510,    2516,    2566,    2574,    2790,    2793,    2798,    2814,    2820,
    2844,    2850,    3772,    3778,    3790,    3796,    3846,    3854,    4070,    4073,
    4078,    4094,    4100,    4124,    4130,    5052,    5058,    5070,    5076
*ELSET, ELSET=SS1_S3
    1347,    1720,    1728,    2567,    2791,    2799,    3847,    4071,    4079
*SURFACE, NAME=SS1
SS1_S1, S1
SS1_S2, S2
SS1_S3, S3
*ELSET, ELSET=SS2_S1
    1288,    1302,    1305,    1329,    1863,    1866,    1890,    1899,    1938,    1947,
    1959,    1962,    2130,    2139,    2151,    2154,    2236,    2245,    2269,    2272,
    2365,    2368,    2380,    2389,    3069,    3072,    3084,    3093,    3132,    3141,
    3165,    3168,    3260,    3269,    3293,    3296,    3389,    3392,    3404,    3413,
    3581,    3584,    3596,    3605,    3644,    3653,    3677,    3680,    4349,    4352,
    4364,    4373,    4412,    4421,    4445,    4448,    4540,    4549,    4573,    4576,
    4669,    4672,    4684,    4693,    4861,    4864,    4876,    4885,    4924,    4933,
    4957,    4960
*ELSET, ELSET=SS2_S2
    1290,    1300,    1306,    1330,    1861,    1867,    1891,    1897,    1939,    1945,
    1957,    1963,    2131,    2137,    2149,    2155,    2238,    2244,    2268,    2274,
    2364,    2370,    2382,    2388,    3068,    3074,    3086,    3092,    3134,    3140,
    3164,    3170,    3262,    3268,    3292,    3298,    3388,    3394,    3406,    3412,
    3580,    3586,    3598,    3604,    3646,    3652,    3676,    3682,    4348,    4354,
    4366,    4372,    4414,    4420,    4444,    4450,    4542,    4548,    4572,    4578,
    4668,    4674,    4686,    4692,    4860,    4866,    4878,    4884,    4926,    4932,
    4956,    4962
*SURFACE, NAME=SS2
SS2_S1, S1
SS2_S2, S2
**
********************************** P R O P E R T I E S ************************
*SHELL SECTION, ELSET=EB1, SECTION INTEGRATION=SIMPSON, MATERIAL=Default-Steel
1.000000e+00
**
*END PART
**
**
**
********************************** E N D   P A R T S **********************************
**
**
********************************** A S S E M B L Y ************************************
**
*ASSEMBLY, NAME=ASSEMBLY1
**
*INSTANCE, NAME=Part-Default_1, PART=Part-Default
*END INSTANCE
**
*END ASSEMBLY
**
**
**
*MATERIAL, NAME = Default-Steel
*ELASTIC, TYPE=ISOTROPIC
2.068000e+05, 2.900000e-01
*DENSITY
7.000000e-06
*CONDUCTIVITY,TYPE=ISO
4.500000e-02
*SPECIFIC HEAT
5.000000e+02
**
**
**
************************************** H I S T O R Y *************************************
**
*PREPRINT
**
**************************************** S T E P 1 ***************************************
*STEP,INC=100,NAME=Default Set
**
*STATIC
1, 1, 1e-05, 1
**
**
**
**
*END STEP
