*HEADING
cubit(sers/Peter/Desktop/Fidesys/FEM/FEM_DSBM/meshes/donut7.inp): 12/06/2019: 22
version: 16.6b
**
********************************** P A R T S **********************************
*PART, NAME=Part-Default
**
********************************** N O D E S **********************************
*NODE, NSET=ALLNODES
     308,    2.000000e+00,    0.000000e+00
     309,    1.000000e+00,    0.000000e+00
     310,    1.857143e+00,    0.000000e+00
     311,    1.714286e+00,    0.000000e+00
     312,    1.571429e+00,    0.000000e+00
     313,    1.428571e+00,    0.000000e+00
     314,    1.285714e+00,    0.000000e+00
     315,    1.142857e+00,    0.000000e+00
     316,    0.000000e+00,    2.000000e+00
     317,    1.994408e+00,    1.494602e-01
     318,    1.977662e+00,    2.980845e-01
     319,    1.949856e+00,    4.450419e-01
     320,    1.911146e+00,    5.895103e-01
     321,    1.861747e+00,    7.306820e-01
     322,    1.801938e+00,    8.677675e-01
     323,    1.732051e+00,    1.000000e+00
     324,    1.652478e+00,    1.126640e+00
     325,    1.563663e+00,    1.246980e+00
     326,    1.466104e+00,    1.360345e+00
     327,    1.360345e+00,    1.466104e+00
** ... 33373 like lines cut
**
********************************** E L E M E N T S ****************************
*ELEMENT, TYPE=CPS3, ELSET=EB1
   22246,   28973,    1946,   24370
   22247,   24370,    6504,   28974
   22248,   28974,    7642,   28973
   22249,   28973,   24370,   28974
   22250,   28969,    7641,   28972
   22251,   28972,    7642,   28974
   22252,   28974,    6504,   28969
   22253,   28969,   28972,   28974
   22254,   28975,     829,   28976
   22255,   28976,    7644,   28977
   22256,   28977,    7643,   28975
   22257,   28975,   28976,   28977
   22258,   28978,    2225,   28979
   22259,   28979,    7645,   28980
   22260,   28980,    7644,   28978
   22261,   28978,   28979,   28980
   22262,   28981,    2226,   28982
   22263,   28982,    7643,   28983
   22264,   28983,    7645,   28981
   22265,   28981,   28982,   28983
** ... 66028 like lines cut
**
********************************** N O D E S E T S **********************************
*NSET, NSET=NS3
     309,     337,     344,     345,     346,     347,
     348,     349,     350,     351,     352,     353,
     467,     497,     538,     555,     617,     632,
     648,     689,     705,     713,     716,     889,
     896,     979,     981,    1103,    1105,    1158,
    1165,    1375,    1377,    1429,    1436,    1485,
    1492,    1639,    1646,    1695,    1702,    1728,
    1730,    1744,    1747,    2525,    2532,    2544,
    2546,    2827,    2829,    2835,    2842,    3243,
    3245,    3251,    3258,    3435,    3442,    3454,
    3456,    4243,    4245,    4251,    4258,    4445,
    4452,    4464,    4466,    4653,    4660,    4672,
    4674,    5249,    5256,    5268,    5270,    5457,
    5464,    5476,    5478,    5594,    5596,    5602,
    5607,    5663,    5668,    5675,    5677,    8965,
    8972,    8984,    8986,    9026,    9028,    9034,
    9041,   10060,   10062,   10068,   10075,   10089,
   10096,   10108,   10110,   11564,   11566,   11572,
   11579,   11593,   11600,   11612,   11614,   12273,
   12280,   12292,   12294,   12334,   12336,   12342,
** ... 10 like lines cut
*NSET, NSET=NS5
     309,     337,     344,     345,     346,     347,
     348,     349,     350,     351,     352,     353,
     467,     497,     538,     555,     617,     632,
     648,     689,     705,     713,     716,     889,
     896,     979,     981,    1103,    1105,    1158,
    1165,    1375,    1377,    1429,    1436,    1485,
    1492,    1639,    1646,    1695,    1702,    1728,
    1730,    1744,    1747,    2525,    2532,    2544,
    2546,    2827,    2829,    2835,    2842,    3243,
    3245,    3251,    3258,    3435,    3442,    3454,
    3456,    4243,    4245,    4251,    4258,    4445,
    4452,    4464,    4466,    4653,    4660,    4672,
    4674,    5249,    5256,    5268,    5270,    5457,
    5464,    5476,    5478,    5594,    5596,    5602,
    5607,    5663,    5668,    5675,    5677,    8965,
    8972,    8984,    8986,    9026,    9028,    9034,
    9041,   10060,   10062,   10068,   10075,   10089,
   10096,   10108,   10110,   11564,   11566,   11572,
   11579,   11593,   11600,   11612,   11614,   12273,
   12280,   12292,   12294,   12334,   12336,   12342,
** ... 10 like lines cut
*NSET, NSET=NS6
     316,     337,     338,     339,     340,     341,
     342,     343,     532,     535,     539,     658,
     673,     681,     684,    1085,    1087,    1094,
    1096,    1108,    1115,    1517,    1524,    1577,
    1584,    1605,    1607,    1616,    1618,    3183,
    3185,    3191,    3198,    3213,    3215,    3221,
    3228,    3263,    3270,    3282,    3284,    4765,
    4772,    4784,    4786,    5005,    5012,    5024,
    5026,    5111,    5113,    5119,    5126,    5154,
    5156,    5162,    5167,   11348,   11350,   11356,
   11363,   11377,   11384,   11396,   11398,   11456,
   11458,   11464,   11471,   11485,   11492,   11504,
   11506,   11641,   11648,   11660,   11662,   11702,
   11704,   11710,   11717,   17381,   17388,   17400,
   17402,   17442,   17444,   17450,   17457,   18341,
   18348,   18360,   18362,   18402,   18404,   18410,
   18417,   18756,   18758,   18764,   18771,   18785,
   18792,   18804,   18806,   18926,   18928,   18934,
   18941,   18955,   18960,   18970,   18972,
*NSET, NSET=NS7
     308,     309,     310,     311,     312,     313,
     314,     315,     483,     488,     575,     577,
     581,     584,     591,     935,     937,     952,
     957,    1219,    1224,    1226,    1233,    1240,
    1247,    1249,    1252,    1275,    1277,    2676,
    2678,    2684,    2691,    2735,    2742,    2751,
    2753,    3641,    3648,    3657,    3659,    3667,
    3674,    3686,    3688,    3719,    3726,    3738,
    3740,    3749,    3754,    3761,    3763,    3849,
    3851,    3856,    3861,    9506,    9508,    9514,
    9521,    9535,    9542,    9554,    9556,    9721,
    9728,    9740,    9742,    9777,    9779,    9784,
    9791,   13021,   13028,   13040,   13042,   13077,
   13079,   13084,   13091,   13121,   13128,   13140,
   13142,   13182,   13184,   13190,   13197,   13321,
   13328,   13340,   13342,   13382,   13384,   13390,
   13397,   13429,   13434,   13444,   13446,   13477,
   13479,   13484,   13491,   13821,   13823,   13828,
   13835,   13847,   13852,   13862,   13864,
**
********************************** S I D E S E T S **********************************
*ELSET, ELSET=SS1_S1
   39270,   39279,   39303,   39306,   39399,   39402,   39414,   39423,   41895,   41898,
   41910,   41919,   41958,   41967,   41991,   41994,   45479,   45482,   45494,   45503,
   45542,   45551,   45575,   45578,   47206,   47215,   47239,   47242,   47335,   47338,
   47350,   47359,   55207,   55210,   55222,   55231,   55270,   55279,   55303,   55306,
   57190,   57199,   57223,   57226,   57319,   57322,   57334,   57343,   59238,   59247,
   59271,   59274,   59367,   59370,   59382,   59391,   65382,   65391,   65415,   65418,
   65511,   65514,   65526,   65535,   67430,   67439,   67463,   67466,   67559,   67562,
   67574,   67583,   68967,   68970,   68982,   68991,   69030,   69039,   69063,   69066,
   69734,   69743,   69767,   69770,   69863,   69866,   69878,   69887
*ELSET, ELSET=SS1_S2
   39272,   39278,   39302,   39308,   39398,   39404,   39416,   39422,   41894,   41900,
   41912,   41918,   41960,   41966,   41990,   41996,   45478,   45484,   45496,   45502,
   45544,   45550,   45574,   45580,   47208,   47214,   47238,   47244,   47334,   47340,
   47352,   47358,   55206,   55212,   55224,   55230,   55272,   55278,   55302,   55308,
   57192,   57198,   57222,   57228,   57318,   57324,   57336,   57342,   59240,   59246,
   59270,   59276,   59366,   59372,   59384,   59390,   65384,   65390,   65414,   65420,
   65510,   65516,   65528,   65534,   67432,   67438,   67462,   67468,   67558,   67564,
   67576,   67582,   68966,   68972,   68984,   68990,   69032,   69038,   69062,   69068,
   69736,   69742,   69766,   69772,   69862,   69868,   69880,   69886
*SURFACE, NAME=SS1
SS1_S1, S1
SS1_S2, S2
*ELSET, ELSET=SS2_S1
   38758,   38767,   38791,   38794,   38887,   38890,   38902,   38911,   39526,   39535,
   39559,   39562,   39655,   39658,   39670,   39679,   40103,   40106,   40118,   40127,
   40166,   40175,   40199,   40202,   40294,   40303,   40327,   40330,   40423,   40426,
   40438,   40447,   41063,   41066,   41078,   41087,   41126,   41135,   41159,   41162,
   45735,   45738,   45750,   45759,   45798,   45807,   45831,   45834,   53094,   53103,
   53127,   53130,   53223,   53226,   53238,   53247,   53350,   53359,   53383,   53386,
   53479,   53482,   53494,   53503,   53606,   53615,   53639,   53642,   53735,   53738,
   53750,   53759,   54695,   54698,   54710,   54719,   54758,   54767,   54791,   54794,
   55398,   55407,   55431,   55434,   55527,   55530,   55542,   55551,   56166,   56175,
   56199,   56202,   56295,   56298,   56310,   56319,   56743,   56746,   56758,   56767,
   56806,   56815,   56839,   56842,   57446,   57455,   57479,   57482,   57575,   57578,
   57590,   57599,   57702,   57711,   57735,   57738,   57831,   57834,   57846,   57855,
   58279,   58282,   58294,   58303,   58342,   58351,   58375,   58378,   59047,   59050,
   59062,   59071,   59110,   59119,   59143,   59146,   59494,   59503,   59527,   59530,
   59623,   59626,   59638,   59647,   59750,   59759,   59783,   59786,   59879,   59882,
   59894,   59903,   60839,   60842,   60854,   60863,   60902,   60911,   60935,   60938,
   61351,   61354,   61366,   61375,   61414,   61423,   61447,   61450
*ELSET, ELSET=SS2_S2
   38760,   38766,   38790,   38796,   38886,   38892,   38904,   38910,   39528,   39534,
   39558,   39564,   39654,   39660,   39672,   39678,   40102,   40108,   40120,   40126,
   40168,   40174,   40198,   40204,   40296,   40302,   40326,   40332,   40422,   40428,
   40440,   40446,   41062,   41068,   41080,   41086,   41128,   41134,   41158,   41164,
   45734,   45740,   45752,   45758,   45800,   45806,   45830,   45836,   53096,   53102,
   53126,   53132,   53222,   53228,   53240,   53246,   53352,   53358,   53382,   53388,
   53478,   53484,   53496,   53502,   53608,   53614,   53638,   53644,   53734,   53740,
   53752,   53758,   54694,   54700,   54712,   54718,   54760,   54766,   54790,   54796,
   55400,   55406,   55430,   55436,   55526,   55532,   55544,   55550,   56168,   56174,
   56198,   56204,   56294,   56300,   56312,   56318,   56742,   56748,   56760,   56766,
   56808,   56814,   56838,   56844,   57448,   57454,   57478,   57484,   57574,   57580,
   57592,   57598,   57704,   57710,   57734,   57740,   57830,   57836,   57848,   57854,
   58278,   58284,   58296,   58302,   58344,   58350,   58374,   58380,   59046,   59052,
   59064,   59070,   59112,   59118,   59142,   59148,   59496,   59502,   59526,   59532,
   59622,   59628,   59640,   59646,   59752,   59758,   59782,   59788,   59878,   59884,
   59896,   59902,   60838,   60844,   60856,   60862,   60904,   60910,   60934,   60940,
   61350,   61356,   61368,   61374,   61416,   61422,   61446,   61452
*SURFACE, NAME=SS2
SS2_S1, S1
SS2_S2, S2
*ELSET, ELSET=SS3_S1
   38758,   38767,   38791,   38794,   38887,   38890,   38902,   38911,   39526,   39535,
   39559,   39562,   39655,   39658,   39670,   39679,   40103,   40106,   40118,   40127,
   40166,   40175,   40199,   40202,   40294,   40303,   40327,   40330,   40423,   40426,
   40438,   40447,   41063,   41066,   41078,   41087,   41126,   41135,   41159,   41162,
   45735,   45738,   45750,   45759,   45798,   45807,   45831,   45834,   53094,   53103,
   53127,   53130,   53223,   53226,   53238,   53247,   53350,   53359,   53383,   53386,
   53479,   53482,   53494,   53503,   53606,   53615,   53639,   53642,   53735,   53738,
   53750,   53759,   54695,   54698,   54710,   54719,   54758,   54767,   54791,   54794,
   55398,   55407,   55431,   55434,   55527,   55530,   55542,   55551,   56166,   56175,
   56199,   56202,   56295,   56298,   56310,   56319,   56743,   56746,   56758,   56767,
   56806,   56815,   56839,   56842,   57446,   57455,   57479,   57482,   57575,   57578,
   57590,   57599,   57702,   57711,   57735,   57738,   57831,   57834,   57846,   57855,
   58279,   58282,   58294,   58303,   58342,   58351,   58375,   58378,   59047,   59050,
   59062,   59071,   59110,   59119,   59143,   59146,   59494,   59503,   59527,   59530,
   59623,   59626,   59638,   59647,   59750,   59759,   59783,   59786,   59879,   59882,
   59894,   59903,   60839,   60842,   60854,   60863,   60902,   60911,   60935,   60938,
   61351,   61354,   61366,   61375,   61414,   61423,   61447,   61450
*ELSET, ELSET=SS3_S2
   38760,   38766,   38790,   38796,   38886,   38892,   38904,   38910,   39528,   39534,
   39558,   39564,   39654,   39660,   39672,   39678,   40102,   40108,   40120,   40126,
   40168,   40174,   40198,   40204,   40296,   40302,   40326,   40332,   40422,   40428,
   40440,   40446,   41062,   41068,   41080,   41086,   41128,   41134,   41158,   41164,
   45734,   45740,   45752,   45758,   45800,   45806,   45830,   45836,   53096,   53102,
   53126,   53132,   53222,   53228,   53240,   53246,   53352,   53358,   53382,   53388,
   53478,   53484,   53496,   53502,   53608,   53614,   53638,   53644,   53734,   53740,
   53752,   53758,   54694,   54700,   54712,   54718,   54760,   54766,   54790,   54796,
   55400,   55406,   55430,   55436,   55526,   55532,   55544,   55550,   56168,   56174,
   56198,   56204,   56294,   56300,   56312,   56318,   56742,   56748,   56760,   56766,
   56808,   56814,   56838,   56844,   57448,   57454,   57478,   57484,   57574,   57580,
   57592,   57598,   57704,   57710,   57734,   57740,   57830,   57836,   57848,   57854,
   58278,   58284,   58296,   58302,   58344,   58350,   58374,   58380,   59046,   59052,
   59064,   59070,   59112,   59118,   59142,   59148,   59496,   59502,   59526,   59532,
   59622,   59628,   59640,   59646,   59752,   59758,   59782,   59788,   59878,   59884,
   59896,   59902,   60838,   60844,   60856,   60862,   60904,   60910,   60934,   60940,
   61350,   61356,   61368,   61374,   61416,   61422,   61446,   61452
*SURFACE, NAME=SS3
SS3_S1, S1
SS3_S2, S2
*ELSET, ELSET=SS4_S1
   39270,   39279,   39303,   39306,   39399,   39402,   39414,   39423,   41895,   41898,
   41910,   41919,   41958,   41967,   41991,   41994,   45479,   45482,   45494,   45503,
   45542,   45551,   45575,   45578,   47206,   47215,   47239,   47242,   47335,   47338,
   47350,   47359,   55207,   55210,   55222,   55231,   55270,   55279,   55303,   55306,
   57190,   57199,   57223,   57226,   57319,   57322,   57334,   57343,   59238,   59247,
   59271,   59274,   59367,   59370,   59382,   59391,   65382,   65391,   65415,   65418,
   65511,   65514,   65526,   65535,   67430,   67439,   67463,   67466,   67559,   67562,
   67574,   67583,   68967,   68970,   68982,   68991,   69030,   69039,   69063,   69066,
   69734,   69743,   69767,   69770,   69863,   69866,   69878,   69887
*ELSET, ELSET=SS4_S2
   39272,   39278,   39302,   39308,   39398,   39404,   39416,   39422,   41894,   41900,
   41912,   41918,   41960,   41966,   41990,   41996,   45478,   45484,   45496,   45502,
   45544,   45550,   45574,   45580,   47208,   47214,   47238,   47244,   47334,   47340,
   47352,   47358,   55206,   55212,   55224,   55230,   55272,   55278,   55302,   55308,
   57192,   57198,   57222,   57228,   57318,   57324,   57336,   57342,   59240,   59246,
   59270,   59276,   59366,   59372,   59384,   59390,   65384,   65390,   65414,   65420,
   65510,   65516,   65528,   65534,   67432,   67438,   67462,   67468,   67558,   67564,
   67576,   67582,   68966,   68972,   68984,   68990,   69032,   69038,   69062,   69068,
   69736,   69742,   69766,   69772,   69862,   69868,   69880,   69886
*SURFACE, NAME=SS4
SS4_S1, S1
SS4_S2, S2
**
********************************** P R O P E R T I E S ************************
*SHELL SECTION, ELSET=EB1, SECTION INTEGRATION=SIMPSON, MATERIAL=Default-Steel
1.000000e+00
**
*END PART
**
**
**
********************************** E N D   P A R T S **********************************
**
**
********************************** A S S E M B L Y ************************************
**
*ASSEMBLY, NAME=ASSEMBLY1
**
*INSTANCE, NAME=Part-Default_1, PART=Part-Default
*END INSTANCE
**
*END ASSEMBLY
**
**
**
*MATERIAL, NAME = Default-Steel
*ELASTIC, TYPE=ISOTROPIC
2.068000e+05, 2.900000e-01
*DENSITY
7.000000e-06
*CONDUCTIVITY,TYPE=ISO
4.500000e-02
*SPECIFIC HEAT
5.000000e+02
**
**
*BOUNDARY,TYPE=DISPLACEMENT
*BOUNDARY,TYPE=DISPLACEMENT
Part-Default_1.NS6, 1, , 0.000000e+00
*BOUNDARY,TYPE=DISPLACEMENT
Part-Default_1.NS7, 2, , 0.000000e+00
**
*DSLOAD, OP=MOD
Part-Default_1.SS3, P, 2.000000e+00
**
************************************** H I S T O R Y *************************************
**
*PREPRINT
**
**************************************** S T E P 1 ***************************************
*STEP,INC=100,NAME=Default Set
**
*STATIC
1, 1, 1e-05, 1
**
**
**
**
*END STEP
