*HEADING
cubit(C:/Users/Peter/Desktop/Fidesys/FEM/donut4.inp): 05/31/2019: 15:34:53
version: 16.6b
**
********************************** P A R T S **********************************
*PART, NAME=Part-Default
**
********************************** N O D E S **********************************
*NODE, NSET=ALLNODES
     308,    2.000000e+00,    0.000000e+00
     309,    1.000000e+00,    0.000000e+00
     310,    1.857143e+00,    0.000000e+00
     311,    1.714286e+00,    0.000000e+00
     312,    1.571429e+00,    0.000000e+00
     313,    1.428571e+00,    0.000000e+00
     314,    1.285714e+00,    0.000000e+00
     315,    1.142857e+00,    0.000000e+00
     316,    0.000000e+00,    2.000000e+00
     317,    1.994408e+00,    1.494602e-01
     318,    1.977662e+00,    2.980845e-01
     319,    1.949856e+00,    4.450419e-01
     320,    1.911146e+00,    5.895103e-01
     321,    1.861747e+00,    7.306820e-01
     322,    1.801938e+00,    8.677675e-01
     323,    1.732051e+00,    1.000000e+00
     324,    1.652478e+00,    1.126640e+00
     325,    1.563663e+00,    1.246980e+00
     326,    1.466104e+00,    1.360345e+00
     327,    1.360345e+00,    1.466104e+00
** ... 543 like lines cut
**
********************************** E L E M E N T S ****************************
*ELEMENT, TYPE=CPS3, ELSET=EB1
     574,     870,     869,     561
     575,     561,     449,     870
     576,     869,     459,     561
     577,     870,     460,     869
     578,     870,     739,     505
     579,     505,     460,     870
     580,     739,     431,     505
     581,     870,     449,     739
     582,     794,     855,     562
     583,     562,     459,     794
     584,     855,     430,     562
     585,     794,     448,     855
     586,     858,     856,     869
     587,     869,     460,     858
     588,     856,     459,     869
     589,     858,     443,     856
     590,     868,     861,     844
     591,     844,     442,     868
     592,     861,     441,     844
     593,     868,     458,     861
** ... 1012 like lines cut
**
********************************** N O D E S E T S **********************************
*NSET, NSET=NS3
     309,     337,     344,     345,     346,     347,
     348,     349,     350,     351,     352,     353,
     467,     497,     538,     555,     617,     632,
     648,     689,     705,     713,     716,
*NSET, NSET=NS5
     309,     337,     344,     345,     346,     347,
     348,     349,     350,     351,     352,     353,
     467,     497,     538,     555,     617,     632,
     648,     689,     705,     713,     716,
*NSET, NSET=NS6
     316,     337,     338,     339,     340,     341,
     342,     343,     532,     535,     539,     658,
     673,     681,     684,
*NSET, NSET=NS7
     308,     309,     310,     311,     312,     313,
     314,     315,     483,     488,     575,     577,
     581,     584,     591,
**
********************************** S I D E S E T S **********************************
*ELSET, ELSET=SS1_S1
     840,     882,     938,     964,    1090,    1120,    1152,    1248,    1280,    1305,
    1316
*ELSET, ELSET=SS1_S2
     842,     881,     937,     966,    1089,    1122,    1154,    1250,    1282,    1304,
    1318
*SURFACE, NAME=SS1
SS1_S1, S1
SS1_S2, S2
*ELSET, ELSET=SS2_S1
     832,     844,     854,     856,     869,     942,    1056,    1060,    1064,    1082,
    1092,    1104,    1114,    1124,    1128,    1138,    1150,    1156,    1160,    1178,
    1186
*ELSET, ELSET=SS2_S2
     834,     846,     853,     858,     868,     941,    1058,    1062,    1066,    1081,
    1094,    1106,    1113,    1126,    1130,    1137,    1149,    1158,    1162,    1177,
    1185
*SURFACE, NAME=SS2
SS2_S1, S1
SS2_S2, S2
*ELSET, ELSET=SS3_S1
     832,     844,     854,     856,     869,     942,    1056,    1060,    1064,    1082,
    1092,    1104,    1114,    1124,    1128,    1138,    1150,    1156,    1160,    1178,
    1186
*ELSET, ELSET=SS3_S2
     834,     846,     853,     858,     868,     941,    1058,    1062,    1066,    1081,
    1094,    1106,    1113,    1126,    1130,    1137,    1149,    1158,    1162,    1177,
    1185
*SURFACE, NAME=SS3
SS3_S1, S1
SS3_S2, S2
*ELSET, ELSET=SS4_S1
     840,     882,     938,     964,    1090,    1120,    1152,    1248,    1280,    1305,
    1316
*ELSET, ELSET=SS4_S2
     842,     881,     937,     966,    1089,    1122,    1154,    1250,    1282,    1304,
    1318
*SURFACE, NAME=SS4
SS4_S1, S1
SS4_S2, S2
**
********************************** P R O P E R T I E S ************************
*SHELL SECTION, ELSET=EB1, SECTION INTEGRATION=SIMPSON, MATERIAL=Default-Steel
1.000000e+00
**
*END PART
**
**
**
********************************** E N D   P A R T S **********************************
**
**
********************************** A S S E M B L Y ************************************
**
*ASSEMBLY, NAME=ASSEMBLY1
**
*INSTANCE, NAME=Part-Default_1, PART=Part-Default
*END INSTANCE
**
*END ASSEMBLY
**
**
**
*MATERIAL, NAME = Default-Steel
*ELASTIC, TYPE=ISOTROPIC
2.068000e+05, 2.900000e-01
*DENSITY
7.000000e-06
*CONDUCTIVITY,TYPE=ISO
4.500000e-02
*SPECIFIC HEAT
5.000000e+02
**
**
*BOUNDARY,TYPE=DISPLACEMENT
*BOUNDARY,TYPE=DISPLACEMENT
Part-Default_1.NS6, 1, , 0.000000e+00
*BOUNDARY,TYPE=DISPLACEMENT
Part-Default_1.NS7, 2, , 0.000000e+00
**
*DSLOAD, OP=MOD
Part-Default_1.SS3, P, 2.000000e+00
**
************************************** H I S T O R Y *************************************
**
*PREPRINT
**
**************************************** S T E P 1 ***************************************
*STEP,INC=100,NAME=Default Set
**
*STATIC
1, 1, 1e-05, 1
**
**
**
**
*END STEP
