*HEADING
cubit(C:/Users/Peter/Desktop/Fidesys/FEM/donut3.inp): 05/27/2019: 23:10:38
version: 16.6b
**
********************************** P A R T S **********************************
*PART, NAME=Part-Default
**
********************************** N O D E S **********************************
*NODE, NSET=ALLNODES
     308,    2.000000e+00,    0.000000e+00
     309,    1.000000e+00,    0.000000e+00
     310,    1.857143e+00,    0.000000e+00
     311,    1.714286e+00,    0.000000e+00
     312,    1.571429e+00,    0.000000e+00
     313,    1.428571e+00,    0.000000e+00
     314,    1.285714e+00,    0.000000e+00
     315,    1.142857e+00,    0.000000e+00
     316,    0.000000e+00,    2.000000e+00
     317,    1.994408e+00,    1.494602e-01
     318,    1.977662e+00,    2.980845e-01
     319,    1.949856e+00,    4.450419e-01
     320,    1.911146e+00,    5.895103e-01
     321,    1.861747e+00,    7.306820e-01
     322,    1.801938e+00,    8.677675e-01
     323,    1.732051e+00,    1.000000e+00
     324,    1.652478e+00,    1.126640e+00
     325,    1.563663e+00,    1.246980e+00
     326,    1.466104e+00,    1.360345e+00
     327,    1.360345e+00,    1.466104e+00
** ... 133 like lines cut
**
********************************** E L E M E N T S ****************************
*ELEMENT, TYPE=CPS3, ELSET=EB1
     316,     325,     326,     367
     317,     355,     394,     395
     318,     344,     345,     383
     319,     317,     318,     359
     320,     310,     317,     354
     321,     319,     360,     318
     322,     322,     323,     364
     323,     355,     312,     311
     324,     397,     396,     426
     325,     310,     308,     317
     326,     354,     355,     311
     327,     395,     396,     356
     328,     346,     384,     345
     329,     402,     401,     364
     330,     404,     367,     405
     331,     450,     460,     431
     332,     451,     458,     432
     333,     367,     326,     368
     334,     452,     433,     434
     335,     370,     329,     371
** ... 238 like lines cut
**
********************************** N O D E S E T S **********************************
*NSET, NSET=NS3
     309,     337,     344,     345,     346,     347,
     348,     349,     350,     351,     352,     353,
*NSET, NSET=NS5
     309,     337,     344,     345,     346,     347,
     348,     349,     350,     351,     352,     353,
*NSET, NSET=NS6
     316,     337,     338,     339,     340,     341,
     342,     343,
*NSET, NSET=NS7
     308,     309,     310,     311,     312,     313,
     314,     315,
**
********************************** S I D E S E T S **********************************
*ELSET, ELSET=SS1_S1
     318,     349,     388,     396,     420,     428,     437
*ELSET, ELSET=SS1_S2
     434
*ELSET, ELSET=SS1_S3
     328,     342,     380
*SURFACE, NAME=SS1
SS1_S1, S1
SS1_S2, S2
SS1_S3, S3
*ELSET, ELSET=SS2_S1
     316,     319,     322,     372,     373,     374,     381,     384,     389,     390,
     397,     398
*ELSET, ELSET=SS2_S2
     325
*ELSET, ELSET=SS2_S3
     321,     343,     378,     386,     392,     395,     402,     404
*SURFACE, NAME=SS2
SS2_S1, S1
SS2_S2, S2
SS2_S3, S3
*ELSET, ELSET=SS3_S1
     316,     319,     322,     372,     373,     374,     381,     384,     389,     390,
     397,     398
*ELSET, ELSET=SS3_S2
     325
*ELSET, ELSET=SS3_S3
     321,     343,     378,     386,     392,     395,     402,     404
*SURFACE, NAME=SS3
SS3_S1, S1
SS3_S2, S2
SS3_S3, S3
*ELSET, ELSET=SS4_S1
     318,     349,     388,     396,     420,     428,     437
*ELSET, ELSET=SS4_S2
     434
*ELSET, ELSET=SS4_S3
     328,     342,     380
*SURFACE, NAME=SS4
SS4_S1, S1
SS4_S2, S2
SS4_S3, S3
**
********************************** P R O P E R T I E S ************************
*SHELL SECTION, ELSET=EB1, SECTION INTEGRATION=SIMPSON, MATERIAL=Default-Steel
1.000000e+00
**
*END PART
**
**
**
********************************** E N D   P A R T S **********************************
**
**
********************************** A S S E M B L Y ************************************
**
*ASSEMBLY, NAME=ASSEMBLY1
**
*INSTANCE, NAME=Part-Default_1, PART=Part-Default
*END INSTANCE
**
*END ASSEMBLY
**
**
**
*MATERIAL, NAME = Default-Steel
*ELASTIC, TYPE=ISOTROPIC
2.068000e+05, 2.900000e-01
*DENSITY
7.000000e-06
*CONDUCTIVITY,TYPE=ISO
4.500000e-02
*SPECIFIC HEAT
5.000000e+02
**
**
*BOUNDARY,TYPE=DISPLACEMENT
**
*DSLOAD, OP=MOD
Part-Default_1.SS3, P, 2.000000e+00
**
************************************** H I S T O R Y *************************************
**
*PREPRINT
**
**************************************** S T E P 1 ***************************************
*STEP,INC=100,NAME=Default Set
**
*STATIC
1, 1, 1e-05, 1
**
**
*BOUNDARY,TYPE=DISPLACEMENT, OP=MOD
Part-Default_1.NS6, 1, , 0.000000e+00
*BOUNDARY,TYPE=DISPLACEMENT, OP=MOD
Part-Default_1.NS7, 2, , 0.000000e+00
**
**
**
*END STEP
