*HEADING
cubit(C:/Users/Peter/Desktop/Fidesys/FEM/donut5.inp): 05/31/2019: 15:40:56
version: 16.6b
**
********************************** P A R T S **********************************
*PART, NAME=Part-Default
**
********************************** N O D E S **********************************
*NODE, NSET=ALLNODES
     308,    2.000000e+00,    0.000000e+00
     309,    1.000000e+00,    0.000000e+00
     310,    1.857143e+00,    0.000000e+00
     311,    1.714286e+00,    0.000000e+00
     312,    1.571429e+00,    0.000000e+00
     313,    1.428571e+00,    0.000000e+00
     314,    1.285714e+00,    0.000000e+00
     315,    1.142857e+00,    0.000000e+00
     316,    0.000000e+00,    2.000000e+00
     317,    1.994408e+00,    1.494602e-01
     318,    1.977662e+00,    2.980845e-01
     319,    1.949856e+00,    4.450419e-01
     320,    1.911146e+00,    5.895103e-01
     321,    1.861747e+00,    7.306820e-01
     322,    1.801938e+00,    8.677675e-01
     323,    1.732051e+00,    1.000000e+00
     324,    1.652478e+00,    1.126640e+00
     325,    1.563663e+00,    1.246980e+00
     326,    1.466104e+00,    1.360345e+00
     327,    1.360345e+00,    1.466104e+00
** ... 2137 like lines cut
**
********************************** E L E M E N T S ****************************
*ELEMENT, TYPE=CPS3, ELSET=EB1
    1606,    2129,     446,    2149
    1607,    2149,     809,    2150
    1608,    2150,     807,    2129
    1609,    2129,    2149,    2150
    1610,    2147,     808,    2148
    1611,    2148,     807,    2150
    1612,    2150,     809,    2147
    1613,    2147,    2148,    2150
    1614,    2151,     448,    2152
    1615,    2152,     811,    2153
    1616,    2153,     810,    2151
    1617,    2151,    2152,    2153
    1618,    2154,     455,    2155
    1619,    2155,     812,    2156
    1620,    2156,     811,    2154
    1621,    2154,    2155,    2156
    1622,    2157,     447,    2158
    1623,    2158,     810,    2159
    1624,    2159,     812,    2157
    1625,    2157,    2158,    2159
** ... 4108 like lines cut
**
********************************** N O D E S E T S **********************************
*NSET, NSET=NS3
     309,     337,     344,     345,     346,     347,
     348,     349,     350,     351,     352,     353,
     467,     497,     538,     555,     617,     632,
     648,     689,     705,     713,     716,     889,
     896,     979,     981,    1103,    1105,    1158,
    1165,    1375,    1377,    1429,    1436,    1485,
    1492,    1639,    1646,    1695,    1702,    1728,
    1730,    1744,    1747,
*NSET, NSET=NS5
     309,     337,     344,     345,     346,     347,
     348,     349,     350,     351,     352,     353,
     467,     497,     538,     555,     617,     632,
     648,     689,     705,     713,     716,     889,
     896,     979,     981,    1103,    1105,    1158,
    1165,    1375,    1377,    1429,    1436,    1485,
    1492,    1639,    1646,    1695,    1702,    1728,
    1730,    1744,    1747,
*NSET, NSET=NS6
     316,     337,     338,     339,     340,     341,
     342,     343,     532,     535,     539,     658,
     673,     681,     684,    1085,    1087,    1094,
    1096,    1108,    1115,    1517,    1524,    1577,
    1584,    1605,    1607,    1616,    1618,
*NSET, NSET=NS7
     308,     309,     310,     311,     312,     313,
     314,     315,     483,     488,     575,     577,
     581,     584,     591,     935,     937,     952,
     957,    1219,    1224,    1226,    1233,    1240,
    1247,    1249,    1252,    1275,    1277,
**
********************************** S I D E S E T S **********************************
*ELSET, ELSET=SS1_S1
    2670,    2679,    2835,    2838,    3059,    3062,    3166,    3175,    3667,    3670,
    3790,    3799,    3918,    3927,    4302,    4311,    4430,    4439,    4527,    4530,
    4574,    4583
*ELSET, ELSET=SS1_S2
    2672,    2678,    2834,    2840,    3058,    3064,    3168,    3174,    3666,    3672,
    3792,    3798,    3920,    3926,    4304,    4310,    4432,    4438,    4526,    4532,
    4576,    4582
*SURFACE, NAME=SS1
SS1_S1, S1
SS1_S2, S2
*ELSET, ELSET=SS2_S1
    2638,    2647,    2686,    2695,    2723,    2726,    2734,    2743,    2783,    2786,
    3075,    3078,    3534,    3543,    3550,    3559,    3566,    3575,    3635,    3638,
    3678,    3687,    3726,    3735,    3763,    3766,    3806,    3815,    3822,    3831,
    3859,    3862,    3907,    3910,    3934,    3943,    3950,    3959,    4019,    4022,
    4051,    4054
*ELSET, ELSET=SS2_S2
    2640,    2646,    2688,    2694,    2722,    2728,    2736,    2742,    2782,    2788,
    3074,    3080,    3536,    3542,    3552,    3558,    3568,    3574,    3634,    3640,
    3680,    3686,    3728,    3734,    3762,    3768,    3808,    3814,    3824,    3830,
    3858,    3864,    3906,    3912,    3936,    3942,    3952,    3958,    4018,    4024,
    4050,    4056
*SURFACE, NAME=SS2
SS2_S1, S1
SS2_S2, S2
*ELSET, ELSET=SS3_S1
    2638,    2647,    2686,    2695,    2723,    2726,    2734,    2743,    2783,    2786,
    3075,    3078,    3534,    3543,    3550,    3559,    3566,    3575,    3635,    3638,
    3678,    3687,    3726,    3735,    3763,    3766,    3806,    3815,    3822,    3831,
    3859,    3862,    3907,    3910,    3934,    3943,    3950,    3959,    4019,    4022,
    4051,    4054
*ELSET, ELSET=SS3_S2
    2640,    2646,    2688,    2694,    2722,    2728,    2736,    2742,    2782,    2788,
    3074,    3080,    3536,    3542,    3552,    3558,    3568,    3574,    3634,    3640,
    3680,    3686,    3728,    3734,    3762,    3768,    3808,    3814,    3824,    3830,
    3858,    3864,    3906,    3912,    3936,    3942,    3952,    3958,    4018,    4024,
    4050,    4056
*SURFACE, NAME=SS3
SS3_S1, S1
SS3_S2, S2
*ELSET, ELSET=SS4_S1
    2670,    2679,    2835,    2838,    3059,    3062,    3166,    3175,    3667,    3670,
    3790,    3799,    3918,    3927,    4302,    4311,    4430,    4439,    4527,    4530,
    4574,    4583
*ELSET, ELSET=SS4_S2
    2672,    2678,    2834,    2840,    3058,    3064,    3168,    3174,    3666,    3672,
    3792,    3798,    3920,    3926,    4304,    4310,    4432,    4438,    4526,    4532,
    4576,    4582
*SURFACE, NAME=SS4
SS4_S1, S1
SS4_S2, S2
**
********************************** P R O P E R T I E S ************************
*SHELL SECTION, ELSET=EB1, SECTION INTEGRATION=SIMPSON, MATERIAL=Default-Steel
1.000000e+00
**
*END PART
**
**
**
********************************** E N D   P A R T S **********************************
**
**
********************************** A S S E M B L Y ************************************
**
*ASSEMBLY, NAME=ASSEMBLY1
**
*INSTANCE, NAME=Part-Default_1, PART=Part-Default
*END INSTANCE
**
*END ASSEMBLY
**
**
**
*MATERIAL, NAME = Default-Steel
*ELASTIC, TYPE=ISOTROPIC
2.068000e+05, 2.900000e-01
*DENSITY
7.000000e-06
*CONDUCTIVITY,TYPE=ISO
4.500000e-02
*SPECIFIC HEAT
5.000000e+02
**
**
*BOUNDARY,TYPE=DISPLACEMENT
*BOUNDARY,TYPE=DISPLACEMENT
Part-Default_1.NS6, 1, , 0.000000e+00
*BOUNDARY,TYPE=DISPLACEMENT
Part-Default_1.NS7, 2, , 0.000000e+00
**
*DSLOAD, OP=MOD
Part-Default_1.SS3, P, 2.000000e+00
**
************************************** H I S T O R Y *************************************
**
*PREPRINT
**
**************************************** S T E P 1 ***************************************
*STEP,INC=100,NAME=Default Set
**
*STATIC
1, 1, 1e-05, 1
**
**
**
**
*END STEP
