*HEADING
cubit(C:/Users/Peter/Desktop/Fidesys/FEM/donut2.inp): 12/27/2018: 14:42:48
version: 16.5.3
**
********************************** P A R T S **********************************
*PART, NAME=Part-Default
**
********************************** N O D E S **********************************
*NODE, NSET=ALLNODES
     158,    1.000000e+00,    0.000000e+00
     159,    2.000000e+00,    0.000000e+00
     160,    4.999999e-01,   -8.660254e-01
     161,   -4.999999e-01,   -8.660254e-01
     162,   -1.000000e+00,   -2.188284e-14
     163,   -4.999999e-01,    8.660254e-01
     164,    4.999999e-01,    8.660254e-01
     165,    1.534309e+00,    1.282925e+00
     166,    3.404253e-01,    1.970815e+00
     167,   -1.001149e+00,    1.731387e+00
     168,   -1.878548e+00,    6.863362e-01
     169,   -1.878557e+00,   -6.863117e-01
     170,   -1.001168e+00,   -1.731376e+00
     171,    3.404070e-01,   -1.970818e+00
     172,    1.534310e+00,   -1.282923e+00
     173,    1.879976e+00,   -6.824146e-01
     174,    1.500000e+00,    0.000000e+00
     175,    1.267155e+00,   -6.414616e-01
     176,    1.017154e+00,    1.074475e+00
     177,    8.660254e-01,    5.000000e-01
** ... 130 like lines cut
**
********************************** E L E M E N T S ****************************
*ELEMENT, TYPE=CPS3, ELSET=EB1
      76,     197,     285,     286
      77,     285,     161,     286
      78,     286,     198,     287
      79,     197,     286,     287
      80,     288,     171,     289
      81,     289,     196,     290
      82,     290,     198,     288
      83,     288,     289,     290
      84,     284,     197,     287
      85,     287,     198,     290
      86,     290,     196,     284
      87,     284,     287,     290
      88,     291,     172,     292
      89,     292,     200,     293
      90,     293,     199,     291
      91,     304,     306,     307
      92,     307,     175,     304
      93,     306,     200,     307
      94,     304,     202,     306
      95,     292,     209,     307
** ... 220 like lines cut
**
********************************** N O D E S E T S **********************************
*NSET, NSET=NS1
     172,
**
********************************** S I D E S E T S **********************************
*ELSET, ELSET=SS1_S1
      76,      77,     102,     153,     156,     157,     172,     233,     236,     237,
     252,     313
*ELSET, ELSET=SS1_S2
     100,     104,     152,     170,     174,     232,     250,     254,     312
*ELSET, ELSET=SS1_S3
     103,     171,     251
*SURFACE, NAME=SS1
SS1_S1, S1
SS1_S2, S2
SS1_S3, S3
*ELSET, ELSET=SS2_S1
      88,     114,     117,     129,     136,     145,     189,     192,     200,     209,
     221,     224,     269,     272,     280,     289,     301,     304
*ELSET, ELSET=SS2_S2
      90,     112,     118,     130,     138,     144,     188,     194,     202,     208,
     220,     226,     268,     274,     282,     288,     300,     306
*SURFACE, NAME=SS2
SS2_S1, S1
SS2_S2, S2
**
********************************** P R O P E R T I E S ************************
*SHELL SECTION, ELSET=EB1, SECTION INTEGRATION=SIMPSON, MATERIAL=Default-Steel
1.000000e+00
**
*END PART
**
**
**
********************************** E N D   P A R T S **********************************
**
**
********************************** A S S E M B L Y ************************************
**
*ASSEMBLY, NAME=ASSEMBLY1
**
*INSTANCE, NAME=Part-Default_1, PART=Part-Default
*END INSTANCE
**
*END ASSEMBLY
**
**
**
*MATERIAL, NAME = Default-Steel
*ELASTIC, TYPE=ISOTROPIC
2.068000e+05, 2.900000e-01
*DENSITY
7.000000e-06
*CONDUCTIVITY,TYPE=ISO
4.500000e-02
*SPECIFIC HEAT
5.000000e+02
**
**
**
************************************** H I S T O R Y *************************************
**
*PREPRINT
**
**************************************** S T E P 1 ***************************************
*STEP,INC=100,NAME=Default Set
**
*STATIC
1, 1, 1e-05, 1
**
**
**
**
*END STEP
