*HEADING
cubit(sers/Peter/Desktop/Fidesys/FEM/FEM_DSBM/meshes/donut6.inp): 12/06/2019: 20
version: 16.6b
**
********************************** P A R T S **********************************
*PART, NAME=Part-Default
**
********************************** N O D E S **********************************
*NODE, NSET=ALLNODES
     308,    2.000000e+00,    0.000000e+00
     309,    1.000000e+00,    0.000000e+00
     310,    1.857143e+00,    0.000000e+00
     311,    1.714286e+00,    0.000000e+00
     312,    1.571429e+00,    0.000000e+00
     313,    1.428571e+00,    0.000000e+00
     314,    1.285714e+00,    0.000000e+00
     315,    1.142857e+00,    0.000000e+00
     316,    0.000000e+00,    2.000000e+00
     317,    1.994408e+00,    1.494602e-01
     318,    1.977662e+00,    2.980845e-01
     319,    1.949856e+00,    4.450419e-01
     320,    1.911146e+00,    5.895103e-01
     321,    1.861747e+00,    7.306820e-01
     322,    1.801938e+00,    8.677675e-01
     323,    1.732051e+00,    1.000000e+00
     324,    1.652478e+00,    1.126640e+00
     325,    1.563663e+00,    1.246980e+00
     326,    1.466104e+00,    1.360345e+00
     327,    1.360345e+00,    1.466104e+00
** ... 8421 like lines cut
**
********************************** E L E M E N T S ****************************
*ELEMENT, TYPE=CPS3, ELSET=EB1
    5734,    6897,    7733,    7734
    5735,    7734,    2039,    6897
    5736,    7733,    2248,    7734
    5737,    6897,     783,    7733
    5738,    7731,    6892,    7732
    5739,    7732,    2247,    7731
    5740,    6892,    2039,    7732
    5741,    7731,     436,    6892
    5742,    7725,    7728,    7730
    5743,    7730,    1989,    7725
    5744,    7728,    2246,    7730
    5745,    7725,    2245,    7728
    5746,    7729,    6665,    7730
    5747,    7730,    2246,    7729
    5748,    6665,    1989,    7730
    5749,    7729,     774,    6665
    5750,    7726,    7727,    7728
    5751,    7728,    2245,    7726
    5752,    7727,    2246,    7728
    5753,    7726,     834,    7727
** ... 16492 like lines cut
**
********************************** N O D E S E T S **********************************
*NSET, NSET=NS3
     309,     337,     344,     345,     346,     347,
     348,     349,     350,     351,     352,     353,
     467,     497,     538,     555,     617,     632,
     648,     689,     705,     713,     716,     889,
     896,     979,     981,    1103,    1105,    1158,
    1165,    1375,    1377,    1429,    1436,    1485,
    1492,    1639,    1646,    1695,    1702,    1728,
    1730,    1744,    1747,    2525,    2532,    2544,
    2546,    2827,    2829,    2835,    2842,    3243,
    3245,    3251,    3258,    3435,    3442,    3454,
    3456,    4243,    4245,    4251,    4258,    4445,
    4452,    4464,    4466,    4653,    4660,    4672,
    4674,    5249,    5256,    5268,    5270,    5457,
    5464,    5476,    5478,    5594,    5596,    5602,
    5607,    5663,    5668,    5675,    5677,
*NSET, NSET=NS5
     309,     337,     344,     345,     346,     347,
     348,     349,     350,     351,     352,     353,
     467,     497,     538,     555,     617,     632,
     648,     689,     705,     713,     716,     889,
     896,     979,     981,    1103,    1105,    1158,
    1165,    1375,    1377,    1429,    1436,    1485,
    1492,    1639,    1646,    1695,    1702,    1728,
    1730,    1744,    1747,    2525,    2532,    2544,
    2546,    2827,    2829,    2835,    2842,    3243,
    3245,    3251,    3258,    3435,    3442,    3454,
    3456,    4243,    4245,    4251,    4258,    4445,
    4452,    4464,    4466,    4653,    4660,    4672,
    4674,    5249,    5256,    5268,    5270,    5457,
    5464,    5476,    5478,    5594,    5596,    5602,
    5607,    5663,    5668,    5675,    5677,
*NSET, NSET=NS6
     316,     337,     338,     339,     340,     341,
     342,     343,     532,     535,     539,     658,
     673,     681,     684,    1085,    1087,    1094,
    1096,    1108,    1115,    1517,    1524,    1577,
    1584,    1605,    1607,    1616,    1618,    3183,
    3185,    3191,    3198,    3213,    3215,    3221,
    3228,    3263,    3270,    3282,    3284,    4765,
    4772,    4784,    4786,    5005,    5012,    5024,
    5026,    5111,    5113,    5119,    5126,    5154,
    5156,    5162,    5167,
*NSET, NSET=NS7
     308,     309,     310,     311,     312,     313,
     314,     315,     483,     488,     575,     577,
     581,     584,     591,     935,     937,     952,
     957,    1219,    1224,    1226,    1233,    1240,
    1247,    1249,    1252,    1275,    1277,    2676,
    2678,    2684,    2691,    2735,    2742,    2751,
    2753,    3641,    3648,    3657,    3659,    3667,
    3674,    3686,    3688,    3719,    3726,    3738,
    3740,    3749,    3754,    3761,    3763,    3849,
    3851,    3856,    3861,
**
********************************** S I D E S E T S **********************************
*ELSET, ELSET=SS1_S1
    9990,    9999,   10023,   10026,   10647,   10650,   10662,   10671,   11543,   11546,
   11558,   11567,   11974,   11983,   12007,   12010,   13975,   13978,   13990,   13999,
   14470,   14479,   14503,   14506,   14982,   14991,   15015,   15018,   16518,   16527,
   16551,   16554,   17030,   17039,   17063,   17066,   17415,   17418,   17430,   17439,
   17606,   17615,   17639,   17642
*ELSET, ELSET=SS1_S2
    9992,    9998,   10022,   10028,   10646,   10652,   10664,   10670,   11542,   11548,
   11560,   11566,   11976,   11982,   12006,   12012,   13974,   13980,   13992,   13998,
   14472,   14478,   14502,   14508,   14984,   14990,   15014,   15020,   16520,   16526,
   16550,   16556,   17032,   17038,   17062,   17068,   17414,   17420,   17432,   17438,
   17608,   17614,   17638,   17644
*SURFACE, NAME=SS1
SS1_S1, S1
SS1_S2, S2
*ELSET, ELSET=SS2_S1
    9862,    9871,    9895,    9898,   10054,   10063,   10087,   10090,   10199,   10202,
   10214,   10223,   10246,   10255,   10279,   10282,   10439,   10442,   10454,   10463,
   11607,   11610,   11622,   11631,   13446,   13455,   13479,   13482,   13510,   13519,
   13543,   13546,   13574,   13583,   13607,   13610,   13847,   13850,   13862,   13871,
   14022,   14031,   14055,   14058,   14214,   14223,   14247,   14250,   14359,   14362,
   14374,   14383,   14534,   14543,   14567,   14570,   14598,   14607,   14631,   14634,
   14743,   14746,   14758,   14767,   14935,   14938,   14950,   14959,   15046,   15055,
   15079,   15082,   15110,   15119,   15143,   15146,   15383,   15386,   15398,   15407,
   15511,   15514,   15526,   15535
*ELSET, ELSET=SS2_S2
    9864,    9870,    9894,    9900,   10056,   10062,   10086,   10092,   10198,   10204,
   10216,   10222,   10248,   10254,   10278,   10284,   10438,   10444,   10456,   10462,
   11606,   11612,   11624,   11630,   13448,   13454,   13478,   13484,   13512,   13518,
   13542,   13548,   13576,   13582,   13606,   13612,   13846,   13852,   13864,   13870,
   14024,   14030,   14054,   14060,   14216,   14222,   14246,   14252,   14358,   14364,
   14376,   14382,   14536,   14542,   14566,   14572,   14600,   14606,   14630,   14636,
   14742,   14748,   14760,   14766,   14934,   14940,   14952,   14958,   15048,   15054,
   15078,   15084,   15112,   15118,   15142,   15148,   15382,   15388,   15400,   15406,
   15510,   15516,   15528,   15534
*SURFACE, NAME=SS2
SS2_S1, S1
SS2_S2, S2
*ELSET, ELSET=SS3_S1
    9862,    9871,    9895,    9898,   10054,   10063,   10087,   10090,   10199,   10202,
   10214,   10223,   10246,   10255,   10279,   10282,   10439,   10442,   10454,   10463,
   11607,   11610,   11622,   11631,   13446,   13455,   13479,   13482,   13510,   13519,
   13543,   13546,   13574,   13583,   13607,   13610,   13847,   13850,   13862,   13871,
   14022,   14031,   14055,   14058,   14214,   14223,   14247,   14250,   14359,   14362,
   14374,   14383,   14534,   14543,   14567,   14570,   14598,   14607,   14631,   14634,
   14743,   14746,   14758,   14767,   14935,   14938,   14950,   14959,   15046,   15055,
   15079,   15082,   15110,   15119,   15143,   15146,   15383,   15386,   15398,   15407,
   15511,   15514,   15526,   15535
*ELSET, ELSET=SS3_S2
    9864,    9870,    9894,    9900,   10056,   10062,   10086,   10092,   10198,   10204,
   10216,   10222,   10248,   10254,   10278,   10284,   10438,   10444,   10456,   10462,
   11606,   11612,   11624,   11630,   13448,   13454,   13478,   13484,   13512,   13518,
   13542,   13548,   13576,   13582,   13606,   13612,   13846,   13852,   13864,   13870,
   14024,   14030,   14054,   14060,   14216,   14222,   14246,   14252,   14358,   14364,
   14376,   14382,   14536,   14542,   14566,   14572,   14600,   14606,   14630,   14636,
   14742,   14748,   14760,   14766,   14934,   14940,   14952,   14958,   15048,   15054,
   15078,   15084,   15112,   15118,   15142,   15148,   15382,   15388,   15400,   15406,
   15510,   15516,   15528,   15534
*SURFACE, NAME=SS3
SS3_S1, S1
SS3_S2, S2
*ELSET, ELSET=SS4_S1
    9990,    9999,   10023,   10026,   10647,   10650,   10662,   10671,   11543,   11546,
   11558,   11567,   11974,   11983,   12007,   12010,   13975,   13978,   13990,   13999,
   14470,   14479,   14503,   14506,   14982,   14991,   15015,   15018,   16518,   16527,
   16551,   16554,   17030,   17039,   17063,   17066,   17415,   17418,   17430,   17439,
   17606,   17615,   17639,   17642
*ELSET, ELSET=SS4_S2
    9992,    9998,   10022,   10028,   10646,   10652,   10664,   10670,   11542,   11548,
   11560,   11566,   11976,   11982,   12006,   12012,   13974,   13980,   13992,   13998,
   14472,   14478,   14502,   14508,   14984,   14990,   15014,   15020,   16520,   16526,
   16550,   16556,   17032,   17038,   17062,   17068,   17414,   17420,   17432,   17438,
   17608,   17614,   17638,   17644
*SURFACE, NAME=SS4
SS4_S1, S1
SS4_S2, S2
**
********************************** P R O P E R T I E S ************************
*SHELL SECTION, ELSET=EB1, SECTION INTEGRATION=SIMPSON, MATERIAL=Default-Steel
1.000000e+00
**
*END PART
**
**
**
********************************** E N D   P A R T S **********************************
**
**
********************************** A S S E M B L Y ************************************
**
*ASSEMBLY, NAME=ASSEMBLY1
**
*INSTANCE, NAME=Part-Default_1, PART=Part-Default
*END INSTANCE
**
*END ASSEMBLY
**
**
**
*MATERIAL, NAME = Default-Steel
*ELASTIC, TYPE=ISOTROPIC
2.068000e+05, 2.900000e-01
*DENSITY
7.000000e-06
*CONDUCTIVITY,TYPE=ISO
4.500000e-02
*SPECIFIC HEAT
5.000000e+02
**
**
*BOUNDARY,TYPE=DISPLACEMENT
*BOUNDARY,TYPE=DISPLACEMENT
Part-Default_1.NS6, 1, , 0.000000e+00
*BOUNDARY,TYPE=DISPLACEMENT
Part-Default_1.NS7, 2, , 0.000000e+00
**
*DSLOAD, OP=MOD
Part-Default_1.SS3, P, 2.000000e+00
**
************************************** H I S T O R Y *************************************
**
*PREPRINT
**
**************************************** S T E P 1 ***************************************
*STEP,INC=100,NAME=Default Set
**
*STATIC
1, 1, 1e-05, 1
**
**
**
**
*END STEP
